<?xml version="1.0" encoding="UTF-8"?>

<!-- generated on 2023-06-21 17:44:54 by Eclipse SUMO jtrrouter Version 1.17.0
<configuration xmlns:xsi="http://www.w3.org/2001/XMLSchema-instance" xsi:noNamespaceSchemaLocation="http://sumo.dlr.de/xsd/jtrrouterConfiguration.xsd">

    <input>
        <net-file value="grid.net.xml"/>
        <route-files value="flows.xml"/>
    </input>

    <output>
        <output-file value="grid.rou.xml"/>
    </output>

    <processing>
        <accept-all-destinations value="true"/>
    </processing>

    <time>
        <begin value="0"/>
        <end value="10000"/>
    </time>

</configuration>
-->

<routes xmlns:xsi="http://www.w3.org/2001/XMLSchema-instance" xsi:noNamespaceSchemaLocation="http://sumo.dlr.de/xsd/routes_file.xsd">
    <vehicle id="0.0" depart="0.00">
        <route edges="D0E0 E0E1 E1D1 D1D2 D2D3 D3C3 C3C4 C4B4 B4A4 A4A3 A3B3 B3B2 B2C2 C2D2 D2E2 E2E3 E3E4 E4D4 D4E4 E4E3 E3E2 E2D2 D2C2 C2B2 B2A2 A2B2 B2B3 B3A3 A3A2 A2A1 A1A0"/>
    </vehicle>
    <vehicle id="1.0" depart="0.00">
        <route edges="B2B3 B3C3 C3D3 D3D4 D4E4 E4E3 E3D3 D3D2 D2D1 D1C1 C1C2 C2C3 C3C2 C2B2 B2A2 A2A3 A3A4 A4B4 B4A4 A4A3 A3B3 B3B4 B4C4 C4D4 D4C4 C4C3 C3B3 B3A3 A3A2 A2A1 A1A2 A2B2 B2C2 C2C1 C1B1 B1A1 A1A0 A0B0 B0C0 C0D0 D0C0 C0C1 C1D1 D1D0 D0E0 E0E1 E1E2 E2E3 E3E4 E4D4 D4D3 D3C3 C3C4 C4B4 B4B3 B3B2 B2B1 B1C1 C1C0 C0B0 B0A0 A0A1 A1B1 B1B0"/>
    </vehicle>
    <vehicle id="10.0" depart="0.00">
        <route edges="D4C4 C4C3 C3B3 B3C3 C3D3 D3C3 C3C2 C2C1 C1D1 D1E1"/>
    </vehicle>
    <vehicle id="100.0" depart="0.00">
        <route edges="E3E4 E4D4 D4D3 D3D4 D4E4 E4E3 E3D3 D3D2 D2C2 C2B2 B2B1 B1C1 C1D1 D1D2 D2E2 E2E3"/>
    </vehicle>
    <vehicle id="1000.0" depart="0.00">
        <route edges="A4A3 A3A2 A2A3 A3B3 B3C3 C3C2 C2C1 C1D1 D1C1"/>
    </vehicle>
    <vehicle id="1001.0" depart="0.00">
        <route edges="B1B0 B0B1 B1C1 C1B1 B1B2 B2A2 A2A1 A1B1 B1A1 A1A0 A0B0 B0C0 C0C1 C1D1 D1C1 C1C0 C0D0 D0C0 C0B0 B0A0 A0A1 A1A2 A2A3 A3A2 A2B2 B2C2 C2C3 C3C4 C4B4 B4A4 A4A3 A3A4 A4B4 B4C4 C4D4 D4E4 E4E3 E3E4 E4D4 D4D3 D3D4 D4C4 C4C3 C3D3 D3E3 E3D3 D3C3 C3B3 B3B4 B4B3 B3B2 B2B3 B3A3"/>
    </vehicle>
    <vehicle id="1002.0" depart="0.00">
        <route edges="A1B1 B1C1 C1C2 C2D2 D2D3 D3E3 E3E4 E4D4 D4C4 C4B4 B4A4 A4A3 A3A4 A4B4 B4B3 B3B4 B4C4 C4C3 C3C2 C2C3 C3D3 D3C3 C3B3 B3B2 B2B1 B1A1 A1A0 A0B0 B0B1 B1B0 B0C0 C0D0 D0D1 D1E1 E1E2 E2E3 E3D3"/>
    </vehicle>
    <vehicle id="1003.0" depart="0.00">
        <route edges="E1E0 E0D0 D0C0 C0B0 B0B1 B1B0 B0C0 C0D0 D0D1 D1E1 E1E2 E2E3 E3D3 D3E3 E3E4 E4D4 D4E4 E4E3 E3E2 E2D2"/>
    </vehicle>
    <vehicle id="1004.0" depart="0.00">
        <route edges="D0D1 D1D2 D2D3 D3D4 D4C4 C4D4 D4D3 D3E3 E3E4 E4D4 D4E4 E4E3 E3D3 D3C3 C3C4 C4C3 C3B3 B3A3 A3A4 A4B4 B4C4 C4B4 B4B3 B3C3 C3D3 D3D2 D2E2 E2E3 E3E2 E2D2 D2D1 D1D0 D0C0 C0C1 C1C2 C2B2 B2A2 A2B2 B2B3 B3B4 B4A4 A4A3 A3B3 B3B2 B2B1 B1B2 B2C2 C2C3 C3C2 C2C1 C1C0 C0D0 D0E0 E0E1 E1D1 D1E1 E1E2 E2E1 E1E0 E0D0"/>
    </vehicle>
    <vehicle id="1005.0" depart="0.00">
        <route edges="C2C1 C1C0 C0D0 D0D1 D1D0 D0E0 E0E1 E1D1 D1C1 C1D1 D1D2 D2C2 C2B2 B2B3 B3B4 B4B3 B3C3 C3D3 D3D2 D2D3 D3D4 D4E4 E4E3 E3E4"/>
    </vehicle>
    <vehicle id="1006.0" depart="0.00">
        <route edges="E3D3 D3D4 D4E4 E4E3 E3E2 E2D2 D2C2 C2C1 C1D1 D1C1 C1C2 C2B2 B2C2 C2C3 C3C4 C4B4 B4B3 B3C3 C3C2 C2D2 D2E2 E2E1 E1D1 D1D2 D2D3 D3D2 D2D1 D1E1 E1E2 E2E3 E3E4 E4D4 D4C4 C4C3 C3B3 B3B2 B2A2 A2A1 A1A0 A0B0 B0A0 A0A1 A1A2 A2A3 A3A2 A2B2 B2B3 B3A3 A3A4 A4B4 B4A4 A4A3 A3B3 B3B4 B4C4 C4D4 D4D3 D3C3 C3D3 D3E3"/>
    </vehicle>
    <vehicle id="1007.0" depart="0.00">
        <route edges="D3D4 D4E4 E4E3 E3D3 D3E3 E3E4 E4D4 D4D3 D3D2 D2D1 D1C1 C1C0 C0C1 C1C2 C2C3 C3C4 C4B4 B4B3 B3A3 A3A2 A2B2 B2A2 A2A3 A3B3 B3B2"/>
    </vehicle>
    <vehicle id="1008.0" depart="0.00">
        <route edges="C0D0 D0C0 C0B0 B0B1 B1A1 A1A2 A2B2 B2C2 C2C3 C3D3 D3C3 C3B3 B3B4 B4C4 C4B4 B4B3 B3C3 C3C2 C2D2 D2E2 E2D2 D2D1 D1E1 E1E2 E2E1 E1E0 E0D0 D0D1 D1D2 D2D3 D3D4 D4C4 C4D4 D4D3 D3D2 D2C2 C2C1 C1C0 C0C1 C1D1 D1C1 C1B1 B1B0 B0C0"/>
    </vehicle>
    <vehicle id="1009.0" depart="0.00">
        <route edges="B4C4 C4B4 B4B3 B3B2 B2C2 C2D2 D2D1 D1C1 C1C0 C0D0 D0D1 D1D2 D2C2 C2B2 B2B3 B3B4 B4A4 A4A3 A3B3 B3C3 C3C4 C4C3 C3C2 C2C1 C1C2 C2C3 C3D3 D3D2 D2D3 D3C3"/>
    </vehicle>
    <vehicle id="101.0" depart="0.00">
        <route edges="E0D0 D0E0 E0E1 E1D1 D1E1 E1E0"/>
    </vehicle>
    <vehicle id="1010.0" depart="0.00">
        <route edges="C1D1 D1D2 D2D1 D1E1 E1D1 D1D0 D0E0 E0E1 E1E2 E2D2 D2D3 D3D2 D2C2 C2C1 C1C0 C0C1 C1C2 C2C3 C3C4 C4B4 B4C4 C4C3 C3B3 B3B4 B4A4 A4A3 A3B3 B3A3 A3A2 A2B2 B2B3 B3C3 C3C2 C2D2 D2E2 E2E1 E1E0 E0D0"/>
    </vehicle>
    <vehicle id="1011.0" depart="0.00">
        <route edges="B3A3 A3A2 A2B2 B2B3 B3B4 B4C4 C4D4 D4E4 E4E3 E3D3 D3D2 D2E2 E2E1 E1D1 D1E1 E1E0 E0D0 D0D1 D1C1 C1D1 D1D0 D0E0 E0E1 E1E2 E2E3 E3E4 E4D4 D4D3 D3D4 D4C4 C4C3 C3D3 D3E3 E3E2 E2D2 D2C2"/>
    </vehicle>
    <vehicle id="1012.0" depart="0.00">
        <route edges="D4C4 C4C3 C3B3 B3B2 B2B1 B1B2 B2B3 B3A3 A3B3 B3C3 C3C4 C4B4 B4B3 B3B4 B4A4 A4A3 A3A2 A2B2 B2A2 A2A1 A1B1 B1A1 A1A0 A0B0 B0B1 B1C1 C1B1 B1B0 B0A0 A0A1 A1A2 A2A3 A3A4 A4B4 B4C4 C4D4 D4E4 E4E3 E3E2 E2E3 E3D3 D3E3 E3E4 E4D4 D4D3 D3D4"/>
    </vehicle>
    <vehicle id="1013.0" depart="0.00">
        <route edges="C3C4 C4B4 B4C4 C4C3 C3D3 D3D2 D2C2 C2C3 C3C2 C2B2 B2B3 B3A3 A3A2 A2A1 A1B1 B1C1 C1D1 D1E1 E1E2 E2E1 E1E0 E0D0 D0C0 C0C1 C1C2 C2C1 C1C0 C0D0 D0D1 D1C1 C1B1 B1A1 A1A0 A0B0 B0A0 A0A1 A1A2 A2A3 A3B3 B3B4 B4B3 B3C3 C3B3 B3B2 B2A2 A2B2 B2B1 B1B0 B0B1 B1B2 B2C2 C2D2 D2D3 D3C3"/>
    </vehicle>
    <vehicle id="1014.0" depart="0.00">
        <route edges="C3C4 C4D4 D4D3 D3E3 E3E4 E4D4 D4E4 E4E3 E3D3 D3D4 D4C4 C4C3 C3B3 B3C3 C3D3 D3D2 D2D3 D3C3 C3C2 C2C3"/>
    </vehicle>
    <vehicle id="1015.0" depart="0.00">
        <route edges="B1C1 C1B1 B1A1"/>
    </vehicle>
    <vehicle id="1016.0" depart="0.00">
        <route edges="D0E0 E0E1 E1D1 D1D2 D2C2 C2B2 B2B1 B1B0 B0A0 A0A1 A1B1 B1B2 B2B3 B3B4 B4C4 C4D4 D4D3 D3D2 D2E2 E2E3 E3E4 E4D4 D4E4 E4E3 E3E2 E2E1"/>
    </vehicle>
    <vehicle id="1017.0" depart="0.00">
        <route edges="E0D0 D0C0 C0C1 C1C2 C2B2 B2A2 A2A1 A1B1 B1B2 B2B3 B3B4 B4B3 B3A3 A3A4 A4B4 B4C4 C4D4 D4E4 E4E3 E3D3 D3D2 D2D1 D1E1 E1E0"/>
    </vehicle>
    <vehicle id="1018.0" depart="0.00">
        <route edges="D2D1 D1D0 D0E0 E0E1 E1D1 D1C1 C1D1 D1E1 E1E2 E2D2 D2D3 D3D4 D4D3 D3C3 C3C4 C4C3 C3D3 D3E3 E3E4 E4D4 D4C4 C4B4 B4B3 B3A3 A3A2 A2A1 A1A2 A2A3 A3B3 B3C3 C3B3 B3B2 B2B1 B1A1 A1A0 A0B0 B0C0"/>
    </vehicle>
    <vehicle id="1019.0" depart="0.00">
        <route edges="B2B1 B1B2 B2A2 A2A1 A1A0 A0B0 B0A0 A0A1 A1A2 A2A3 A3A4 A4B4 B4C4 C4B4 B4A4 A4A3 A3A2 A2B2 B2B3 B3A3 A3B3 B3B2 B2C2 C2D2 D2E2 E2E3 E3D3 D3E3 E3E4 E4D4 D4D3 D3D2 D2D1 D1C1 C1C2 C2C3 C3B3 B3B4 B4B3 B3C3 C3C2 C2B2"/>
    </vehicle>
    <vehicle id="102.0" depart="0.00">
        <route edges="C2B2 B2B3 B3C3 C3C4 C4B4 B4B3 B3B2 B2C2 C2C3 C3D3 D3D2 D2D1 D1D0 D0C0 C0B0 B0A0 A0A1 A1A2 A2B2 B2B1 B1B0"/>
    </vehicle>
    <vehicle id="1020.0" depart="0.00">
        <route edges="C4D4 D4E4 E4E3 E3D3 D3D2 D2D1 D1C1 C1D1 D1E1 E1E2 E2D2 D2D3 D3E3 E3E2 E2E1 E1E0 E0D0 D0E0 E0E1 E1D1"/>
    </vehicle>
    <vehicle id="1021.0" depart="0.00">
        <route edges="B0C0 C0D0 D0D1 D1C1 C1C0 C0B0 B0A0 A0A1 A1B1 B1B0 B0B1 B1A1 A1A0 A0B0"/>
    </vehicle>
    <vehicle id="1022.0" depart="0.00">
        <route edges="D2D1 D1E1 E1E2 E2D2 D2C2 C2C1 C1C0 C0B0 B0A0 A0A1 A1A2 A2A3 A3A4 A4B4 B4B3 B3C3 C3B3 B3A3 A3A2 A2B2 B2B3 B3B4 B4C4 C4C3 C3D3 D3C3 C3C4"/>
    </vehicle>
    <vehicle id="1023.0" depart="0.00">
        <route edges="C2B2 B2A2 A2A1 A1B1 B1B0 B0C0 C0D0 D0C0 C0C1 C1C0 C0B0 B0A0 A0A1 A1A2 A2A3 A3B3 B3C3 C3C4 C4B4 B4B3 B3A3 A3A2 A2B2 B2B3 B3B4 B4A4 A4A3 A3A4 A4B4 B4C4 C4C3 C3D3 D3D2 D2D1 D1C1 C1B1 B1B2 B2C2 C2D2 D2D3 D3D4 D4D3 D3C3 C3B3 B3B2 B2B1 B1C1 C1D1 D1E1 E1E2 E2E3 E3E2 E2E1 E1E0 E0D0 D0D1 D1D2 D2E2 E2D2 D2C2 C2C3 C3C2 C2C1 C1C2"/>
    </vehicle>
    <vehicle id="1024.0" depart="0.00">
        <route edges="B3B4 B4A4 A4A3 A3A4 A4B4 B4C4 C4D4 D4D3 D3D2 D2D3 D3C3 C3C4 C4B4 B4B3 B3A3 A3B3 B3C3 C3D3 D3E3 E3E4 E4D4 D4C4 C4C3 C3B3 B3B2 B2C2 C2D2 D2D1 D1D0 D0E0 E0E1 E1D1 D1C1 C1C2 C2B2 B2B1 B1A1 A1A2 A2A1 A1A0 A0B0 B0B1 B1B0 B0C0 C0D0 D0D1 D1D2 D2E2 E2E1 E1E0 E0D0 D0C0 C0B0 B0A0 A0A1 A1B1 B1C1 C1B1 B1B2 B2A2 A2A3 A3A2 A2B2 B2B3"/>
    </vehicle>
    <vehicle id="1025.0" depart="0.00">
        <route edges="A0B0 B0B1 B1A1 A1A2 A2A3 A3B3 B3A3 A3A4 A4B4 B4C4 C4C3 C3C4 C4B4 B4A4 A4A3 A3A2 A2B2 B2B1 B1C1 C1C0 C0B0 B0A0 A0A1 A1A0"/>
    </vehicle>
    <vehicle id="1026.0" depart="0.00">
        <route edges="E3E2 E2E1 E1E2 E2D2 D2D1 D1C1 C1C0 C0D0 D0D1 D1E1 E1E0 E0D0 D0C0 C0C1 C1B1 B1A1 A1B1 B1B0 B0A0 A0A1 A1A0 A0B0 B0B1 B1C1 C1D1 D1D2 D2C2 C2C1 C1C2 C2C3 C3B3 B3B2 B2B1 B1B2 B2A2 A2A1 A1A2 A2A3 A3B3 B3A3 A3A2 A2B2 B2B3 B3C3 C3D3 D3C3 C3C2 C2D2 D2D3 D3E3 E3D3 D3D2 D2E2 E2E3 E3E4 E4D4 D4C4 C4C3 C3C4 C4B4 B4B3 B3B4 B4A4 A4A3 A3A4"/>
    </vehicle>
    <vehicle id="1027.0" depart="0.00">
        <route edges="E4E3 E3E4 E4D4 D4D3 D3E3 E3D3 D3C3 C3C4 C4B4 B4C4 C4C3 C3C2 C2C1 C1D1 D1E1 E1D1 D1D0 D0D1 D1C1 C1B1 B1B2 B2B3 B3B2 B2C2 C2C3 C3B3 B3C3 C3D3 D3D2 D2D1 D1D2 D2C2 C2D2 D2E2 E2E1 E1E0 E0D0 D0E0 E0E1 E1E2 E2E3 E3E2 E2D2 D2D3 D3D4 D4E4"/>
    </vehicle>
    <vehicle id="1028.0" depart="0.00">
        <route edges="B1C1 C1B1 B1B0 B0C0 C0B0 B0B1 B1A1 A1A0 A0B0 B0A0 A0A1 A1A2 A2A1 A1B1 B1B2 B2C2 C2B2 B2B1"/>
    </vehicle>
    <vehicle id="1029.0" depart="0.00">
        <route edges="B1A1 A1A2 A2A3 A3A2 A2B2 B2C2 C2C3 C3C4 C4B4 B4B3 B3B2 B2B1 B1B2 B2B3 B3B4 B4C4 C4D4 D4E4 E4E3 E3E2 E2D2 D2C2 C2C1 C1B1 B1B0 B0C0 C0D0 D0E0 E0E1 E1D1 D1D2 D2D3 D3D2 D2D1 D1D0 D0C0 C0C1 C1C0 C0B0 B0A0 A0A1 A1A0 A0B0 B0B1 B1C1 C1D1 D1E1 E1E2 E2E1"/>
    </vehicle>
    <vehicle id="103.0" depart="0.00">
        <route edges="C0C1 C1B1 B1C1 C1D1 D1D0 D0D1 D1E1 E1E2 E2D2 D2D1 D1C1 C1C0 C0B0 B0A0 A0A1 A1B1"/>
    </vehicle>
    <vehicle id="1030.0" depart="0.00">
        <route edges="C3C4 C4D4 D4D3 D3D2 D2E2 E2E3 E3E4 E4D4 D4C4 C4B4 B4B3 B3B2 B2B1 B1A1 A1A2 A2A1 A1B1 B1B0 B0C0 C0B0 B0A0 A0A1 A1A0 A0B0 B0B1 B1B2 B2B3 B3A3 A3A4 A4B4 B4C4 C4C3 C3B3 B3B4 B4A4 A4A3 A3A2 A2B2 B2C2 C2C3 C3D3 D3D4"/>
    </vehicle>
    <vehicle id="1031.0" depart="0.00">
        <route edges="B4C4 C4D4 D4E4 E4E3 E3E2 E2E3 E3D3 D3D2 D2D3 D3C3 C3C4 C4C3 C3B3"/>
    </vehicle>
    <vehicle id="1032.0" depart="0.00">
        <route edges="B4A4 A4A3 A3B3 B3B2 B2A2"/>
    </vehicle>
    <vehicle id="1033.0" depart="0.00">
        <route edges="C2D2 D2E2 E2E1 E1E0 E0D0 D0E0 E0E1 E1E2 E2D2 D2D3 D3E3 E3E4 E4D4 D4E4 E4E3 E3E2 E2E3 E3D3 D3D2 D2D1 D1E1 E1D1 D1C1 C1B1 B1C1 C1D1 D1D2 D2C2 C2C3 C3C2 C2C1"/>
    </vehicle>
    <vehicle id="1034.0" depart="0.00">
        <route edges="A2B2 B2C2 C2C3 C3C4 C4B4 B4B3 B3B2 B2B1 B1B2 B2B3 B3C3 C3C2 C2B2 B2A2 A2A3 A3B3 B3A3 A3A2 A2A1 A1B1 B1A1 A1A2"/>
    </vehicle>
    <vehicle id="1035.0" depart="0.00">
        <route edges="C1D1 D1D0 D0C0 C0B0 B0A0 A0A1 A1A2 A2A1 A1A0 A0B0 B0C0 C0D0 D0D1 D1D2 D2D1 D1E1 E1E2 E2D2 D2C2 C2D2 D2D3 D3C3 C3B3 B3B4 B4C4 C4D4 D4C4 C4C3 C3D3 D3D2 D2E2 E2E1 E1D1 D1C1 C1C0 C0C1 C1B1 B1A1 A1B1 B1B2 B2B3 B3A3 A3A2 A2B2 B2C2 C2C1 C1C2 C2C3 C3C4 C4B4 B4A4 A4A3 A3A4 A4B4 B4B3 B3B2 B2B1 B1C1"/>
    </vehicle>
    <vehicle id="1036.0" depart="0.00">
        <route edges="E2E1 E1E0 E0D0 D0D1 D1D2 D2C2 C2B2 B2B3 B3C3 C3B3 B3A3 A3A4 A4B4 B4B3"/>
    </vehicle>
    <vehicle id="1037.0" depart="0.00">
        <route edges="C0D0 D0C0 C0C1 C1B1 B1B2 B2B3 B3C3 C3C4 C4B4 B4C4 C4D4 D4D3 D3C3 C3B3 B3A3 A3B3 B3B2 B2B1 B1B0 B0C0 C0B0 B0B1 B1C1 C1C0"/>
    </vehicle>
    <vehicle id="1038.0" depart="0.00">
        <route edges="B1B0 B0B1 B1B2 B2A2 A2A1 A1A0 A0B0 B0C0 C0D0 D0E0 E0E1 E1E0 E0D0 D0D1 D1C1 C1C2 C2B2 B2B1 B1C1 C1D1 D1E1 E1E2 E2E3 E3E2 E2E1 E1D1 D1D0 D0C0 C0C1 C1C0 C0B0 B0A0 A0A1 A1B1 B1A1 A1A2 A2A3 A3A2 A2B2 B2C2 C2D2 D2D3 D3D4 D4D3 D3D2 D2D1 D1D2 D2E2 E2D2 D2C2 C2C3 C3C4 C4C3 C3D3 D3E3 E3E4 E4D4 D4E4 E4E3 E3D3 D3C3 C3B3 B3B4 B4B3 B3C3 C3C2 C2C1 C1B1"/>
    </vehicle>
    <vehicle id="1039.0" depart="0.00">
        <route edges="B2A2 A2A1 A1A0 A0B0 B0B1 B1B0 B0C0 C0D0 D0E0 E0E1 E1D1 D1C1 C1C2 C2C3 C3D3 D3D2 D2D3 D3E3 E3E4 E4D4 D4C4 C4B4 B4A4 A4A3 A3A2 A2B2 B2C2 C2C1 C1C0 C0B0 B0A0 A0A1 A1A2 A2A3 A3B3 B3B4 B4C4 C4C3 C3C4 C4D4 D4E4 E4E3 E3E2 E2D2 D2C2 C2B2 B2B3 B3A3 A3A4 A4B4 B4B3 B3B2 B2B1 B1A1 A1B1 B1C1 C1D1 D1D0 D0C0 C0C1 C1B1 B1B2"/>
    </vehicle>
    <vehicle id="104.0" depart="0.00">
        <route edges="B4C4 C4B4 B4A4 A4A3 A3A2 A2B2 B2C2 C2B2 B2B3 B3C3 C3B3 B3A3 A3B3 B3B4 B4B3 B3B2 B2B1 B1B0 B0C0 C0D0 D0D1 D1C1 C1C0 C0B0 B0A0 A0A1 A1A0 A0B0 B0B1 B1A1 A1A2 A2A3 A3A4 A4B4"/>
    </vehicle>
    <vehicle id="1040.0" depart="0.00">
        <route edges="C4B4 B4B3 B3B2 B2C2 C2C1 C1C0 C0D0"/>
    </vehicle>
    <vehicle id="1041.0" depart="0.00">
        <route edges="A4B4 B4C4 C4D4 D4E4 E4E3 E3D3 D3C3 C3D3 D3D2 D2E2 E2E3 E3E2 E2E1 E1D1 D1C1 C1B1 B1B2 B2B3 B3B2 B2C2 C2C1 C1D1 D1D0 D0C0 C0B0 B0A0 A0A1 A1B1 B1A1 A1A2 A2A3 A3A2 A2B2 B2B1 B1C1 C1C2 C2D2 D2D3 D3D4 D4D3 D3E3 E3E4 E4D4 D4C4 C4B4 B4A4 A4A3 A3B3 B3B4"/>
    </vehicle>
    <vehicle id="1042.0" depart="0.00">
        <route edges="B4C4 C4D4 D4C4 C4C3 C3C2 C2D2 D2D3 D3D4 D4D3 D3D2 D2D1 D1E1 E1E2 E2E1 E1E0 E0D0 D0D1 D1C1 C1D1 D1D2 D2C2 C2C3 C3B3 B3B2 B2C2 C2B2 B2A2 A2A1 A1B1 B1B0 B0C0 C0D0 D0C0 C0C1 C1B1 B1A1 A1A2 A2A3 A3A4 A4B4 B4B3 B3C3 C3D3 D3C3 C3C4 C4B4 B4A4 A4A3 A3A2 A2B2 B2B3 B3B4"/>
    </vehicle>
    <vehicle id="1043.0" depart="0.00">
        <route edges="C2C1 C1C0 C0D0 D0D1 D1D0 D0C0 C0C1 C1D1 D1E1 E1E2 E2E1 E1E0 E0D0 D0E0 E0E1 E1D1 D1C1"/>
    </vehicle>
    <vehicle id="1044.0" depart="0.00">
        <route edges="D1D2 D2D1 D1C1 C1C0 C0B0 B0A0 A0A1 A1B1 B1B2 B2A2"/>
    </vehicle>
    <vehicle id="1045.0" depart="0.00">
        <route edges="D4D3 D3C3 C3D3 D3E3 E3E2 E2D2 D2D3 D3D4 D4C4 C4C3 C3C2 C2D2 D2D1 D1E1 E1E0 E0D0 D0C0 C0C1 C1D1 D1D2 D2C2 C2B2 B2C2 C2C3 C3C4 C4B4 B4A4 A4A3 A3A2 A2B2 B2B3 B3C3 C3B3 B3A3 A3A4 A4B4 B4B3 B3B2 B2A2 A2A1 A1B1 B1C1 C1C2 C2C1 C1C0 C0D0 D0E0 E0E1 E1E2 E2E3 E3E4"/>
    </vehicle>
    <vehicle id="1046.0" depart="0.00">
        <route edges="D0E0 E0E1 E1E2 E2D2 D2D3 D3C3 C3C2 C2D2 D2E2 E2E1 E1D1 D1E1 E1E0 E0D0 D0C0 C0C1 C1C2 C2B2 B2B1 B1C1 C1D1 D1D0 D0D1 D1C1 C1B1 B1A1 A1A0 A0B0 B0B1 B1B2 B2B3 B3A3 A3A4 A4B4 B4A4 A4A3 A3A2 A2A1 A1B1 B1B0 B0C0 C0B0 B0A0 A0A1 A1A2 A2A3 A3B3 B3C3 C3D3 D3E3 E3E2 E2E3 E3E4 E4D4 D4D3 D3D2 D2C2 C2C1"/>
    </vehicle>
    <vehicle id="1047.0" depart="0.00">
        <route edges="B0A0 A0A1 A1A2 A2A3 A3A4 A4B4 B4B3 B3B2 B2B3 B3B4 B4C4 C4C3 C3D3 D3D4 D4E4 E4E3 E3E2 E2D2 D2D1 D1E1 E1E2 E2E1 E1D1 D1C1 C1C0 C0D0 D0D1 D1D0 D0E0 E0E1 E1E0 E0D0 D0C0 C0C1 C1D1 D1D2 D2E2 E2E3 E3D3 D3E3"/>
    </vehicle>
    <vehicle id="1048.0" depart="0.00">
        <route edges="B0A0 A0A1 A1B1 B1C1 C1C0 C0D0 D0E0 E0E1 E1E0 E0D0 D0D1 D1D2 D2D3 D3C3 C3B3 B3B2 B2B1 B1B2 B2A2 A2A1 A1A2 A2A3 A3A4 A4B4 B4B3 B3B4 B4A4 A4A3 A3A2 A2B2 B2C2 C2C3 C3C4 C4D4 D4E4 E4E3 E3E4 E4D4 D4D3 D3D2 D2E2 E2E1 E1E2 E2D2 D2D1"/>
    </vehicle>
    <vehicle id="1049.0" depart="0.00">
        <route edges="C2C1 C1D1 D1E1 E1E2 E2D2 D2C2 C2B2 B2A2 A2A3 A3A4 A4B4 B4C4 C4B4 B4B3 B3B4 B4A4 A4A3 A3A2 A2A1 A1B1 B1B0 B0A0 A0A1 A1A2 A2B2 B2C2 C2D2 D2E2 E2E3 E3D3 D3D4 D4D3 D3E3 E3E4 E4D4 D4E4 E4E3 E3E2 E2E1"/>
    </vehicle>
    <vehicle id="105.0" depart="0.00">
        <route edges="B2B1 B1B0 B0C0 C0C1 C1B1 B1C1 C1C2 C2C1 C1C0 C0B0 B0A0 A0A1 A1B1 B1A1 A1A2 A2A3 A3A4 A4B4 B4B3 B3B2 B2A2 A2A1 A1A0 A0B0 B0B1 B1B2 B2C2 C2C3 C3B3 B3C3 C3C2 C2B2 B2B3 B3A3 A3A2 A2B2"/>
    </vehicle>
    <vehicle id="1050.0" depart="0.00">
        <route edges="C3C2 C2B2 B2B3 B3B4 B4A4 A4A3 A3A2 A2A3 A3A4 A4B4 B4B3 B3B2 B2C2 C2C3 C3C4 C4B4 B4C4 C4C3 C3D3 D3D4 D4D3 D3E3 E3E4 E4D4 D4C4 C4D4 D4E4 E4E3 E3E2 E2E1 E1E0 E0D0 D0E0"/>
    </vehicle>
    <vehicle id="1051.0" depart="0.00">
        <route edges="A1B1 B1B2 B2B1 B1B0 B0A0 A0A1 A1A2 A2A1 A1A0"/>
    </vehicle>
    <vehicle id="1052.0" depart="0.00">
        <route edges="E0D0 D0C0 C0B0 B0B1 B1C1 C1C2 C2C3 C3B3 B3B4 B4A4 A4A3 A3A2 A2A1 A1B1 B1A1 A1A0 A0B0 B0C0 C0C1 C1B1 B1B2 B2C2 C2B2 B2B3 B3B2 B2A2 A2A3 A3A4 A4B4 B4C4 C4D4 D4D3 D3D2 D2D3 D3D4 D4C4 C4B4 B4B3 B3C3 C3C4 C4C3 C3C2 C2D2 D2C2 C2C1 C1C0 C0D0 D0E0 E0E1 E1E0"/>
    </vehicle>
    <vehicle id="1053.0" depart="0.00">
        <route edges="D1D0 D0E0 E0E1 E1D1 D1D2 D2D3 D3E3 E3E2 E2D2 D2D1 D1E1 E1E2 E2E3 E3E4 E4D4 D4D3 D3D2"/>
    </vehicle>
    <vehicle id="1054.0" depart="0.00">
        <route edges="C0C1 C1D1 D1E1 E1E2 E2D2 D2D3 D3C3 C3C4 C4C3 C3D3 D3D2 D2E2 E2E3 E3E4 E4D4 D4C4 C4B4 B4A4 A4A3 A3B3 B3B2 B2C2 C2D2 D2D1 D1C1 C1C0 C0D0 D0D1 D1D2 D2C2 C2C1 C1C2 C2C3 C3B3 B3A3 A3A4 A4B4 B4C4 C4D4 D4E4 E4E3 E3D3 D3D4 D4D3 D3E3 E3E2 E2E1 E1E0 E0D0"/>
    </vehicle>
    <vehicle id="1055.0" depart="0.00">
        <route edges="B1B2 B2A2 A2A3 A3A4 A4B4 B4C4 C4C3 C3C2 C2D2 D2D1 D1D0 D0E0 E0E1 E1D1 D1D2 D2D3 D3C3 C3B3 B3B2 B2C2 C2C1 C1B1 B1A1 A1B1 B1C1 C1D1 D1E1 E1E2 E2D2 D2C2"/>
    </vehicle>
    <vehicle id="1056.0" depart="0.00">
        <route edges="A0A1 A1B1 B1A1 A1A0 A0B0 B0A0"/>
    </vehicle>
    <vehicle id="1057.0" depart="0.00">
        <route edges="B4B3 B3B2 B2B3 B3A3 A3A4 A4B4 B4A4 A4A3 A3B3 B3C3 C3C2 C2C3 C3D3 D3D2 D2E2 E2E3 E3D3 D3E3 E3E4 E4D4 D4E4 E4E3 E3E2 E2E1 E1E0 E0D0 D0D1 D1C1 C1C0 C0D0 D0C0"/>
    </vehicle>
    <vehicle id="1058.0" depart="0.00">
        <route edges="D1D0 D0C0"/>
    </vehicle>
    <vehicle id="1059.0" depart="0.00">
        <route edges="C2B2 B2A2 A2B2 B2C2 C2D2 D2D3 D3D4 D4E4 E4E3 E3E4 E4D4 D4C4 C4C3 C3D3 D3D2 D2D1 D1D0 D0D1 D1C1 C1D1 D1D2 D2C2 C2C1"/>
    </vehicle>
    <vehicle id="106.0" depart="0.00">
        <route edges="C1C2 C2C3 C3D3 D3D2 D2E2 E2E1 E1E0 E0D0 D0D1 D1D0 D0E0 E0E1 E1D1 D1E1 E1E2 E2E3 E3D3 D3D4 D4C4 C4B4 B4A4 A4A3 A3B3 B3B2 B2C2 C2B2 B2B1 B1A1 A1A0 A0B0 B0C0 C0C1 C1D1 D1C1 C1B1 B1C1 C1C0 C0D0"/>
    </vehicle>
    <vehicle id="1060.0" depart="0.00">
        <route edges="A0A1 A1A2 A2B2 B2A2 A2A3 A3A4 A4B4 B4C4 C4D4 D4E4 E4E3 E3E2 E2E3 E3D3 D3D2 D2E2 E2E1 E1E2 E2D2 D2D1 D1D0 D0C0 C0C1 C1D1 D1D2 D2D3 D3D4 D4C4 C4C3 C3C2 C2C1 C1C2 C2C3 C3C4"/>
    </vehicle>
    <vehicle id="1061.0" depart="0.00">
        <route edges="A0A1 A1B1 B1C1 C1D1 D1D2 D2E2 E2E3 E3D3 D3E3 E3E2 E2E1 E1E0 E0D0 D0C0 C0C1 C1C0 C0B0 B0C0 C0D0 D0D1 D1C1 C1C2 C2C3 C3C4 C4C3 C3D3 D3D4 D4C4 C4B4 B4A4 A4A3 A3B3 B3C3 C3C2 C2D2 D2D1 D1E1 E1E2 E2D2 D2C2 C2B2 B2B1 B1B0 B0A0"/>
    </vehicle>
    <vehicle id="1062.0" depart="0.00">
        <route edges="B2B1 B1C1 C1C2 C2C1 C1C0 C0D0 D0C0 C0B0 B0C0 C0C1 C1B1 B1B2 B2A2 A2B2 B2B3 B3C3 C3D3 D3C3 C3C2 C2D2 D2D3 D3E3 E3E2 E2D2 D2C2 C2B2 B2C2 C2C3 C3C4 C4B4 B4A4 A4A3 A3B3 B3A3 A3A2 A2A3 A3A4 A4B4 B4C4 C4C3 C3B3 B3B4 B4B3 B3B2"/>
    </vehicle>
    <vehicle id="1063.0" depart="0.00">
        <route edges="A0B0 B0B1 B1A1 A1A0"/>
    </vehicle>
    <vehicle id="1064.0" depart="0.00">
        <route edges="D1D0 D0E0 E0E1 E1D1 D1E1 E1E0 E0D0 D0C0 C0B0 B0A0 A0A1 A1A0 A0B0 B0C0 C0D0 D0D1 D1C1 C1B1 B1B2 B2B3 B3A3 A3B3 B3B4 B4A4 A4A3 A3A4 A4B4 B4C4 C4D4 D4E4 E4E3 E3E2 E2D2 D2C2 C2B2 B2A2 A2A1 A1B1 B1A1 A1A2 A2A3 A3A2 A2B2 B2C2 C2C1 C1D1 D1D2 D2D1"/>
    </vehicle>
    <vehicle id="1065.0" depart="0.00">
        <route edges="E2D2 D2D3 D3C3 C3C2 C2C1 C1B1 B1B0 B0A0 A0A1 A1A2 A2A1 A1B1 B1C1 C1D1 D1D2 D2E2 E2E3 E3E2 E2E1 E1E0 E0D0 D0E0 E0E1 E1D1 D1E1 E1E2"/>
    </vehicle>
    <vehicle id="1066.0" depart="0.00">
        <route edges="A2B2 B2C2 C2D2 D2D1 D1D0 D0E0 E0E1 E1E0 E0D0 D0C0 C0C1 C1C2 C2B2 B2B3 B3B2 B2B1 B1B0 B0C0 C0B0 B0A0 A0A1 A1A0 A0B0 B0B1 B1A1 A1B1 B1C1 C1D1 D1E1 E1D1 D1C1 C1B1 B1B2 B2A2 A2A1 A1A2 A2A3 A3B3 B3A3 A3A2"/>
    </vehicle>
    <vehicle id="1067.0" depart="0.00">
        <route edges="B0C0 C0C1 C1C2 C2C1 C1C0 C0D0 D0D1 D1D2 D2C2 C2D2 D2D3 D3E3 E3E4 E4D4 D4D3 D3D2 D2E2 E2E3 E3D3 D3C3 C3C2 C2B2 B2C2 C2C3 C3B3"/>
    </vehicle>
    <vehicle id="1068.0" depart="0.00">
        <route edges="D4D3 D3C3 C3B3 B3A3 A3B3 B3B4 B4A4 A4A3 A3A2 A2A3 A3A4 A4B4 B4B3 B3C3 C3C4 C4C3 C3C2 C2B2 B2B3 B3B2 B2B1"/>
    </vehicle>
    <vehicle id="1069.0" depart="0.00">
        <route edges="C0B0 B0A0 A0A1 A1A2 A2A3 A3A4 A4B4 B4C4 C4D4 D4D3 D3D4 D4C4 C4C3 C3C2 C2C1 C1C2 C2C3 C3D3 D3C3 C3B3 B3A3 A3A2 A2B2 B2B1 B1A1 A1A0 A0B0 B0B1 B1B2 B2C2 C2D2 D2E2 E2E3 E3E2 E2E1 E1E0 E0D0 D0C0 C0C1 C1B1 B1C1 C1C0 C0D0 D0D1 D1E1 E1E2 E2D2 D2C2 C2B2 B2B3 B3B4 B4A4 A4A3 A3B3 B3C3 C3C4 C4B4 B4B3"/>
    </vehicle>
    <vehicle id="107.0" depart="0.00">
        <route edges="E3E2 E2E3 E3D3 D3C3 C3C4 C4D4 D4E4 E4E3"/>
    </vehicle>
    <vehicle id="1070.0" depart="0.00">
        <route edges="C0C1 C1C2 C2D2 D2E2 E2E1 E1D1 D1C1 C1B1 B1A1 A1A0 A0B0 B0B1 B1B2 B2A2 A2A3 A3A4 A4B4 B4A4 A4A3 A3B3 B3C3 C3D3"/>
    </vehicle>
    <vehicle id="1071.0" depart="0.00">
        <route edges="E4E3 E3E2 E2E3 E3E4 E4D4 D4C4 C4B4 B4A4 A4A3 A3B3 B3C3 C3C2 C2C3 C3B3 B3B4 B4B3 B3B2 B2B1 B1A1 A1A0 A0B0 B0C0 C0C1 C1C2 C2C1 C1D1 D1E1 E1E2 E2E1 E1D1 D1C1 C1B1 B1B2"/>
    </vehicle>
    <vehicle id="1072.0" depart="0.00">
        <route edges="D1D2 D2E2 E2E3 E3D3 D3D4 D4C4 C4C3 C3D3 D3C3 C3C2 C2D2 D2D3 D3D2 D2D1 D1E1 E1E0 E0D0"/>
    </vehicle>
    <vehicle id="1073.0" depart="0.00">
        <route edges="D1C1 C1D1 D1D2 D2D1 D1D0 D0C0 C0D0 D0D1 D1E1 E1E0 E0D0 D0E0 E0E1"/>
    </vehicle>
    <vehicle id="1074.0" depart="0.00">
        <route edges="D3C3 C3C2 C2C1 C1D1 D1E1 E1D1 D1C1 C1B1 B1B2 B2B3 B3B4 B4C4 C4B4 B4A4 A4A3 A3A2 A2A3 A3B3 B3A3 A3A4 A4B4 B4B3 B3B2 B2B1 B1B0 B0A0 A0A1 A1A2 A2B2"/>
    </vehicle>
    <vehicle id="1075.0" depart="0.00">
        <route edges="B4C4 C4C3 C3D3 D3D4 D4C4 C4B4 B4A4 A4A3 A3A4 A4B4 B4B3 B3C3 C3C4"/>
    </vehicle>
    <vehicle id="1076.0" depart="0.00">
        <route edges="A1B1 B1C1 C1D1 D1D2 D2E2 E2E3 E3E2 E2E1 E1D1 D1D0 D0D1 D1C1 C1C2 C2C3 C3C4 C4B4 B4B3 B3B2 B2B1 B1A1 A1A0 A0B0 B0B1 B1B2 B2C2 C2B2 B2B3 B3C3 C3C2 C2D2 D2D3 D3D4 D4E4 E4E3 E3D3 D3D2 D2D1 D1E1 E1E2 E2D2 D2C2 C2C1 C1C0 C0D0 D0E0 E0E1 E1E0 E0D0 D0C0 C0B0 B0A0 A0A1"/>
    </vehicle>
    <vehicle id="1077.0" depart="0.00">
        <route edges="B0A0 A0A1 A1A0 A0B0 B0B1 B1B2 B2B1 B1B0 B0C0 C0D0 D0C0 C0B0"/>
    </vehicle>
    <vehicle id="1078.0" depart="0.00">
        <route edges="C1B1 B1A1 A1B1 B1B0 B0C0 C0D0 D0D1 D1D0 D0C0 C0C1 C1C2 C2D2 D2D3 D3E3 E3D3 D3C3 C3B3 B3A3 A3A2 A2A1 A1A2 A2A3 A3A4 A4B4 B4C4 C4D4 D4D3 D3D2 D2D1 D1C1 C1C0 C0B0 B0B1 B1B2 B2A2 A2B2 B2B3 B3C3 C3D3 D3D4"/>
    </vehicle>
    <vehicle id="1079.0" depart="0.00">
        <route edges="C3D3 D3D4 D4C4 C4C3 C3C4 C4D4 D4E4 E4E3 E3E2 E2D2 D2D1 D1E1 E1E0 E0D0 D0E0 E0E1"/>
    </vehicle>
    <vehicle id="108.0" depart="0.00">
        <route edges="C3C4 C4B4 B4B3 B3C3 C3D3 D3E3 E3E4 E4D4 D4E4 E4E3 E3D3 D3D2 D2E2 E2E1 E1D1 D1D0 D0E0 E0E1 E1E2 E2E3 E3E2 E2D2 D2D1"/>
    </vehicle>
    <vehicle id="1080.0" depart="0.00">
        <route edges="A2B2 B2B1 B1A1 A1A0 A0B0 B0C0 C0C1 C1B1 B1B0 B0A0 A0A1 A1A2 A2A1 A1B1 B1C1 C1D1 D1E1 E1E2 E2D2 D2E2 E2E1 E1D1 D1D2 D2C2 C2B2 B2A2 A2A3 A3A2"/>
    </vehicle>
    <vehicle id="1081.0" depart="0.00">
        <route edges="A1A2 A2A3 A3A4 A4B4 B4A4 A4A3 A3A2 A2A1 A1B1 B1B2 B2A2 A2B2 B2B3 B3A3 A3B3 B3B2 B2C2 C2C1 C1C0 C0D0 D0C0 C0B0 B0B1 B1A1"/>
    </vehicle>
    <vehicle id="1082.0" depart="0.00">
        <route edges="E1D1 D1D2 D2D3 D3D4 D4C4 C4C3 C3B3 B3B4 B4C4 C4B4 B4A4 A4A3 A3A2 A2A3 A3A4 A4B4 B4B3 B3C3 C3D3 D3E3 E3E4 E4D4 D4E4 E4E3 E3D3 D3C3 C3C2 C2C1 C1D1 D1C1 C1C2 C2D2 D2E2 E2E3 E3E2 E2E1 E1E0 E0D0 D0C0 C0C1 C1B1 B1A1 A1A0 A0B0 B0B1 B1C1 C1C0 C0B0 B0C0 C0D0 D0E0 E0E1 E1E2"/>
    </vehicle>
    <vehicle id="1083.0" depart="0.00">
        <route edges="C2B2 B2B3 B3B2 B2A2 A2A1 A1B1 B1B0 B0C0 C0C1 C1B1 B1A1 A1A0 A0B0 B0B1 B1C1 C1C2 C2C3 C3C4 C4D4 D4E4 E4E3 E3E2 E2E1 E1E0 E0D0 D0C0 C0D0 D0D1 D1E1 E1E2 E2D2 D2D3 D3E3 E3E4 E4D4 D4C4 C4B4 B4A4 A4A3 A3B3 B3C3 C3D3 D3D4 D4D3 D3D2 D2C2 C2C1 C1D1 D1D2 D2E2 E2E3 E3D3 D3C3 C3B3 B3A3 A3A4 A4B4 B4C4 C4C3 C3C2 C2D2 D2D1 D1D0 D0E0 E0E1 E1D1 D1C1 C1C0 C0B0 B0A0 A0A1 A1A2"/>
    </vehicle>
    <vehicle id="1084.0" depart="0.00">
        <route edges="A2A1 A1A0 A0B0 B0B1 B1B0 B0C0 C0C1 C1C2 C2C1 C1C0 C0D0 D0D1 D1C1 C1B1 B1A1 A1B1 B1B2 B2B3 B3A3 A3B3 B3C3 C3C4 C4B4 B4B3 B3B2 B2C2 C2D2 D2E2 E2E3"/>
    </vehicle>
    <vehicle id="1085.0" depart="0.00">
        <route edges="E1E2 E2E3 E3E4 E4D4 D4C4 C4C3 C3D3"/>
    </vehicle>
    <vehicle id="1086.0" depart="0.00">
        <route edges="A1A0 A0B0 B0A0 A0A1 A1A2 A2A3 A3B3 B3B2 B2C2 C2C1 C1B1 B1B2 B2A2 A2A1 A1B1 B1B0 B0C0 C0D0 D0E0 E0E1 E1E0 E0D0 D0C0 C0B0 B0B1 B1C1 C1C0 C0C1 C1D1 D1D2 D2D3 D3C3 C3D3 D3D4 D4D3 D3E3 E3D3 D3D2 D2E2 E2E1 E1D1 D1C1 C1C2 C2C3 C3B3 B3B4 B4A4 A4A3 A3A2 A2B2 B2B1 B1A1"/>
    </vehicle>
    <vehicle id="1087.0" depart="0.00">
        <route edges="B3B2 B2C2 C2D2 D2E2 E2D2 D2D1 D1E1 E1E2 E2E3 E3E4 E4D4 D4C4 C4C3 C3B3 B3A3 A3A2 A2B2 B2A2 A2A3 A3B3 B3C3 C3D3 D3C3 C3C2 C2C1 C1C0 C0B0 B0B1 B1A1 A1B1 B1B2 B2B3 B3B4 B4C4 C4B4 B4A4 A4A3 A3A4 A4B4 B4B3"/>
    </vehicle>
    <vehicle id="1088.0" depart="0.00">
        <route edges="C4B4 B4A4 A4A3 A3B3 B3A3 A3A2 A2A1 A1A0 A0B0 B0A0 A0A1 A1B1 B1A1 A1A2 A2A3 A3A4 A4B4 B4B3 B3C3 C3C4 C4C3 C3C2 C2C1 C1C0 C0D0 D0D1 D1D2 D2C2 C2D2 D2E2 E2E3 E3D3 D3D2 D2D1 D1C1 C1B1 B1B0 B0C0 C0B0 B0B1 B1B2 B2B1 B1C1 C1C2 C2B2 B2B3 B3B4 B4C4 C4D4 D4E4 E4E3 E3E2 E2E1 E1D1 D1D0 D0E0 E0E1 E1E2 E2D2 D2D3 D3D4 D4C4"/>
    </vehicle>
    <vehicle id="1089.0" depart="0.00">
        <route edges="D2D1 D1D2 D2D3 D3D4 D4E4 E4E3 E3E2 E2D2 D2C2 C2B2 B2B1 B1C1 C1D1 D1E1 E1E2 E2E3 E3E4 E4D4 D4C4 C4C3 C3C4 C4B4 B4B3 B3C3 C3D3 D3E3 E3D3 D3C3 C3B3 B3A3 A3A4 A4B4 B4C4 C4D4 D4D3 D3D2 D2E2 E2E1 E1E0 E0D0 D0E0 E0E1 E1D1 D1D0 D0C0 C0B0"/>
    </vehicle>
    <vehicle id="109.0" depart="0.00">
        <route edges="A4B4 B4B3 B3B2 B2B1 B1A1 A1A0 A0B0 B0A0 A0A1 A1B1 B1C1 C1D1 D1D0 D0C0 C0C1 C1C2 C2D2 D2E2 E2E3 E3E4 E4D4 D4E4 E4E3 E3E2 E2E1 E1E0 E0D0 D0E0 E0E1 E1D1 D1C1 C1B1 B1B2 B2A2 A2A3 A3B3 B3C3 C3C4 C4C3 C3D3 D3D2 D2D3 D3D4 D4D3 D3E3 E3D3 D3C3 C3C2 C2B2 B2B3 B3B4 B4A4 A4A3 A3A4"/>
    </vehicle>
    <vehicle id="1090.0" depart="0.00">
        <route edges="A2A3 A3A2 A2A1 A1B1 B1C1 C1D1 D1C1 C1C2 C2D2 D2C2 C2C3 C3B3 B3B4 B4C4 C4D4 D4D3 D3E3 E3E2 E2D2 D2D1 D1D0 D0E0 E0E1 E1E2 E2E3 E3E4 E4D4 D4E4 E4E3 E3D3 D3D2 D2E2 E2E1 E1D1 D1E1 E1E0 E0D0 D0C0 C0D0 D0D1 D1D2 D2D3 D3C3 C3D3 D3D4 D4C4 C4C3 C3C4 C4B4 B4B3 B3B2 B2B3 B3C3 C3C2 C2C1 C1B1 B1B0 B0B1 B1A1 A1A2 A2B2 B2C2 C2B2 B2A2"/>
    </vehicle>
    <vehicle id="1091.0" depart="0.00">
        <route edges="B1C1 C1B1 B1B2 B2A2 A2A3 A3A4 A4B4 B4C4 C4D4 D4D3 D3C3 C3C4 C4C3 C3C2 C2C1 C1D1 D1D0 D0C0 C0B0 B0B1 B1A1 A1A0 A0B0 B0A0 A0A1 A1A2 A2A1 A1B1 B1B0 B0C0 C0C1 C1C2 C2B2 B2C2 C2D2 D2E2 E2E1 E1E0 E0D0 D0D1 D1E1 E1E2 E2D2 D2C2 C2C3 C3B3 B3C3 C3D3 D3E3 E3E4 E4D4 D4C4 C4B4 B4B3 B3A3 A3B3 B3B2 B2B1"/>
    </vehicle>
    <vehicle id="1092.0" depart="0.00">
        <route edges="C0B0 B0A0 A0A1 A1A0 A0B0 B0B1 B1A1 A1A2 A2B2 B2C2 C2D2 D2D1 D1C1 C1C0 C0C1 C1C2 C2C3 C3B3 B3B4 B4A4 A4A3 A3A4 A4B4 B4B3 B3B2 B2B1 B1B2 B2B3 B3C3 C3C4 C4B4 B4C4 C4D4 D4E4 E4E3 E3E4 E4D4 D4D3 D3D2 D2C2 C2B2 B2A2 A2A1 A1B1 B1C1 C1D1 D1D0 D0D1 D1D2 D2D3 D3D4 D4C4 C4C3 C3C2 C2C1 C1B1 B1B0 B0C0 C0D0 D0E0 E0E1 E1D1 D1E1 E1E0 E0D0 D0C0"/>
    </vehicle>
    <vehicle id="1093.0" depart="0.00">
        <route edges="B3B4 B4A4 A4A3 A3A4 A4B4 B4C4 C4C3 C3D3 D3E3 E3E4 E4D4 D4D3 D3D2 D2C2 C2D2 D2D3 D3D4 D4C4 C4B4 B4B3 B3C3 C3C4 C4D4 D4E4 E4E3 E3E2 E2E1 E1D1 D1C1 C1B1 B1B0 B0C0 C0C1 C1D1 D1D2 D2E2 E2E3 E3D3 D3C3"/>
    </vehicle>
    <vehicle id="1094.0" depart="0.00">
        <route edges="A4A3 A3B3 B3B2 B2A2 A2A3 A3A4 A4B4 B4A4"/>
    </vehicle>
    <vehicle id="1095.0" depart="0.00">
        <route edges="D2D1 D1C1 C1C0 C0C1 C1C2 C2C3"/>
    </vehicle>
    <vehicle id="1096.0" depart="0.00">
        <route edges="E3E4 E4D4 D4E4 E4E3 E3D3 D3D2 D2D1 D1D0 D0E0 E0E1 E1E2 E2D2 D2D3 D3E3 E3E2 E2E1 E1E0 E0D0 D0D1 D1E1 E1D1 D1C1 C1D1 D1D2 D2C2 C2C1 C1B1 B1B0 B0C0 C0C1 C1C2 C2D2 D2E2 E2E3"/>
    </vehicle>
    <vehicle id="1097.0" depart="0.00">
        <route edges="C1B1 B1B0 B0C0 C0C1 C1C0 C0B0 B0B1 B1C1 C1C2 C2B2 B2C2 C2D2 D2D3 D3E3 E3D3 D3D4 D4C4 C4D4 D4E4 E4E3 E3E2 E2E1 E1E2 E2D2 D2C2 C2C1 C1D1 D1D2 D2D1 D1E1 E1E0 E0D0"/>
    </vehicle>
    <vehicle id="1098.0" depart="0.00">
        <route edges="B3C3 C3D3 D3D2"/>
    </vehicle>
    <vehicle id="1099.0" depart="0.00">
        <route edges="E3E2 E2E3 E3D3 D3C3 C3B3 B3C3 C3C4 C4B4 B4B3 B3B2 B2B1 B1B2 B2B3 B3B4 B4A4 A4A3 A3B3 B3A3 A3A4 A4B4 B4C4 C4C3 C3C2 C2C1 C1D1 D1D0 D0C0 C0C1 C1C2 C2C3 C3D3 D3E3 E3E4 E4D4 D4D3 D3D4 D4C4 C4D4 D4E4 E4E3"/>
    </vehicle>
    <vehicle id="11.0" depart="0.00">
        <route edges="B3C3 C3D3 D3D4 D4C4 C4C3 C3C2 C2C3 C3C4 C4D4 D4E4 E4E3 E3E2 E2D2 D2D1 D1E1 E1D1 D1C1 C1B1 B1A1 A1B1 B1B2 B2C2 C2B2 B2B1 B1C1 C1C2 C2C1 C1C0 C0B0 B0B1 B1B0 B0C0 C0C1 C1D1 D1D0 D0E0 E0E1 E1E2 E2E3 E3E4 E4D4 D4D3 D3C3 C3B3 B3B2 B2B3 B3A3 A3A2 A2A3 A3B3 B3B4 B4A4 A4A3 A3A4 A4B4"/>
    </vehicle>
    <vehicle id="110.0" depart="0.00">
        <route edges="E3E4 E4D4 D4C4 C4D4 D4E4 E4E3 E3E2 E2E1 E1E0 E0D0 D0D1 D1D2 D2C2 C2B2 B2B3 B3A3 A3B3 B3B4 B4A4 A4A3 A3A4 A4B4 B4C4 C4C3 C3D3 D3C3 C3B3 B3C3 C3C2 C2C1 C1D1 D1C1 C1C0 C0C1 C1C2 C2D2 D2D1 D1D0 D0E0 E0E1 E1E2 E2E3 E3D3 D3D2 D2E2 E2D2 D2D3 D3D4 D4D3 D3E3"/>
    </vehicle>
    <vehicle id="1100.0" depart="0.00">
        <route edges="D3D2 D2D1 D1D0 D0E0 E0E1 E1D1 D1D2 D2C2 C2C1 C1B1 B1B2 B2B1 B1C1 C1C2 C2C3 C3D3 D3D4 D4C4 C4D4 D4E4 E4E3 E3E2 E2D2 D2E2 E2E3 E3D3 D3C3 C3B3 B3C3 C3C4 C4B4 B4B3 B3A3 A3A2 A2A1 A1A0"/>
    </vehicle>
    <vehicle id="1101.0" depart="0.00">
        <route edges="B2B1 B1A1 A1B1 B1B0 B0C0 C0C1 C1C2 C2C3 C3C2 C2D2 D2D3 D3E3 E3E4 E4D4 D4C4 C4D4 D4D3 D3D2 D2D1 D1D0 D0E0 E0E1 E1E0 E0D0 D0D1 D1C1 C1C0 C0D0 D0C0 C0B0 B0B1 B1B2 B2B3 B3B4 B4B3 B3B2 B2C2 C2B2 B2A2 A2A3 A3A4 A4B4 B4C4 C4C3 C3B3 B3C3 C3D3 D3D4 D4E4 E4E3"/>
    </vehicle>
    <vehicle id="1102.0" depart="0.00">
        <route edges="C2C1 C1C0 C0B0 B0C0 C0C1 C1B1 B1A1 A1A0 A0B0 B0A0 A0A1 A1A2 A2A3 A3A4 A4B4 B4A4"/>
    </vehicle>