<configuration>
  <input>
    <net-file value="grid.net.xml" />
    <route-files value="grid.rou.xml" />
    <additional-files value="rerouter.add.xml" />
  </input>
  <time>
    <begin value="0" />
    <end value="100" />
  </time>
   <output>
     <fcd-output value="grid.output1600.xml" />
   </output>
</configuration>